Version 4
SHEET 1 880 680
WIRE -64 32 -64 -16
WIRE 272 48 272 0
WIRE -64 128 -64 112
WIRE -64 128 -144 128
WIRE 160 128 112 128
WIRE -64 144 -64 128
WIRE -144 176 -144 128
WIRE 304 256 304 208
WIRE -64 272 -64 224
WIRE 240 272 240 208
FLAG 240 272 0
FLAG -144 176 0
FLAG -64 -16 VCC
FLAG -64 272 VDD
FLAG 272 0 VCC
FLAG 304 256 VDD
FLAG 112 128 Vout
SYMBOL TriangleWaveGenerator 272 144 R0
SYMATTR InstName X1
SYMBOL voltage -64 16 R0
SYMATTR InstName V1
SYMATTR Value 5
SYMBOL voltage -64 128 R0
WINDOW 123 0 0 Left 0
WINDOW 39 0 0 Left 0
SYMATTR InstName V2
SYMATTR Value 5
TEXT -168 400 Left 2 !.tran 0 10 1
TEXT -168 424 Left 2 !.meas TRAN Offset AVG V(Vout) TRIG V(Vout)=0 TD=1
TEXT -168 448 Left 2 !.meas TRAN PeakToPeak PP V(Vout)
TEXT -168 488 Left 2 !.meas t1 find time when V(vout)=0 cross=1 td=5s
TEXT -168 512 Left 2 !.meas t2 find time when V(vout)=0 cross=3 td=5s
TEXT -168 536 Left 2 !.meas F PARAM 1/(t2-t1)
