Version 4
SHEET 1 1292 680
WIRE 992 -128 976 -128
WIRE 1104 -128 1072 -128
WIRE 1040 -64 1024 -64
WIRE 640 -48 560 -48
WIRE 784 -48 720 -48
WIRE 880 -48 784 -48
WIRE 976 -48 976 -128
WIRE 976 -48 960 -48
WIRE 1040 -32 1040 -64
WIRE 784 -16 784 -48
WIRE 976 -16 976 -48
WIRE 1008 -16 976 -16
WIRE 224 0 224 -16
WIRE 1104 0 1104 -128
WIRE 1104 0 1072 0
WIRE 1168 0 1104 0
WIRE 1008 16 992 16
WIRE 192 32 144 32
WIRE 1040 48 1040 32
WIRE 560 64 560 -48
WIRE 656 64 560 64
WIRE 784 64 784 48
WIRE 784 64 720 64
WIRE 880 64 864 64
WIRE 976 64 976 -16
WIRE 976 64 960 64
WIRE -64 80 -96 80
WIRE 64 80 16 80
WIRE 192 80 112 80
WIRE 992 80 992 16
WIRE 112 96 112 80
WIRE 624 128 624 112
WIRE 416 144 368 144
WIRE 448 144 416 144
WIRE 560 144 560 64
WIRE 560 144 528 144
WIRE 592 144 560 144
WIRE 784 160 784 64
WIRE 784 160 656 160
WIRE 592 176 560 176
WIRE 112 208 112 176
WIRE 192 208 112 208
WIRE 560 208 560 176
WIRE 624 208 624 192
WIRE -16 224 -16 208
WIRE -224 240 -256 240
WIRE -96 240 -96 80
WIRE -96 240 -144 240
WIRE -48 240 -96 240
WIRE 64 256 64 80
WIRE 64 256 16 256
WIRE 128 256 64 256
WIRE 192 256 128 256
WIRE 416 256 416 144
WIRE 864 256 864 64
WIRE 864 256 416 256
WIRE -48 272 -96 272
WIRE -96 304 -96 272
WIRE -16 304 -16 288
WIRE 128 304 128 256
WIRE 224 304 224 288
WIRE 304 304 304 224
FLAG -16 208 5V
IOPIN -16 208 In
FLAG -16 304 -5V
IOPIN -16 304 In
FLAG -96 304 0
FLAG -256 240 -
IOPIN -256 240 In
FLAG 144 32 +
IOPIN 144 32 In
FLAG 224 304 -5V
IOPIN 224 304 In
FLAG 224 -16 5V
IOPIN 224 -16 In
FLAG 304 304 0
FLAG 992 80 0
FLAG 1168 0 Vout
IOPIN 1168 0 Out
FLAG 624 112 5V
IOPIN 624 112 In
FLAG 624 208 -5V
IOPIN 624 208 In
FLAG 1040 48 -5V
IOPIN 1040 48 In
FLAG 560 208 0
FLAG 1024 -64 5V
IOPIN 1024 -64 In
FLAG 128 304 InvOut
IOPIN 128 304 Out
SYMBOL Opamps\\LT6370 224 144 R0
SYMATTR InstName U1
SYMBOL Opamps\\AD711 -16 192 R0
SYMATTR InstName U2
SYMBOL res -128 224 R90
WINDOW 0 0 56 VBottom 2
WINDOW 3 32 56 VTop 2
SYMATTR InstName R1
SYMATTR Value 100k
SYMBOL res 32 64 R90
WINDOW 0 0 56 VBottom 2
WINDOW 3 32 56 VTop 2
SYMATTR InstName R2
SYMATTR Value 100k
SYMBOL res 96 80 R0
SYMATTR InstName R3
SYMATTR Value 2740
SYMBOL Opamps\\AD711 624 96 R0
SYMATTR InstName U3
SYMBOL Opamps\\AD711 1040 -64 R0
SYMATTR InstName U4
SYMBOL diode 720 48 R90
WINDOW 0 0 32 VBottom 2
WINDOW 3 32 32 VTop 2
SYMATTR InstName D1
SYMATTR Value 1N914
SYMBOL diode 768 -16 R0
SYMATTR InstName D2
SYMATTR Value 1N914
SYMBOL res 544 128 R90
WINDOW 0 0 56 VBottom 2
WINDOW 3 32 56 VTop 2
SYMATTR InstName R5
SYMATTR Value {R}
SYMBOL res 736 -64 R90
WINDOW 0 0 56 VBottom 2
WINDOW 3 32 56 VTop 2
SYMATTR InstName R4
SYMATTR Value {R}
SYMBOL res 976 -64 R90
WINDOW 0 0 56 VBottom 2
WINDOW 3 32 56 VTop 2
SYMATTR InstName R6
SYMATTR Value {R/2}
SYMBOL res 976 48 R90
WINDOW 0 0 56 VBottom 2
WINDOW 3 32 56 VTop 2
SYMATTR InstName R7
SYMATTR Value {R}
SYMBOL res 1088 -144 R90
WINDOW 0 0 56 VBottom 2
WINDOW 3 32 56 VTop 2
SYMATTR InstName R8
SYMATTR Value {R}
TEXT 536 312 Left 2 !.param R=1Meg
