Version 4
SHEET 1 1104 680
WIRE 208 144 208 128
WIRE 176 160 112 160
WIRE 352 176 240 176
WIRE 368 176 352 176
WIRE 176 192 80 192
WIRE 208 224 208 208
WIRE 112 272 112 160
WIRE 240 272 112 272
WIRE 352 272 352 176
WIRE 352 272 320 272
WIRE 112 288 112 272
WIRE 112 400 112 368
FLAG 112 400 0
FLAG 80 192 Vin
IOPIN 80 192 In
FLAG 368 176 Vout
IOPIN 368 176 Out
FLAG 208 128 5V
IOPIN 208 128 In
FLAG 208 224 GND
IOPIN 208 224 In
SYMBOL res 96 272 R0
SYMATTR InstName R1
SYMATTR Value {R1}
SYMBOL res 336 256 R90
WINDOW 0 -5 56 VBottom 2
WINDOW 3 32 56 VTop 2
SYMATTR InstName R2
SYMATTR Value {R2}
SYMBOL Opamps\\AD8066 208 112 R0
SYMATTR InstName U1
TEXT 272 352 Left 2 !.param R1=10k
TEXT 272 376 Left 2 !.param R2=100k
TEXT 280 328 Left 2 ;Default Values
