Version 4
SHEET 1 880 680
WIRE 464 112 464 64
WIRE -304 128 -304 96
WIRE -224 128 -224 96
WIRE 352 176 240 176
WIRE 704 176 576 176
WIRE -304 240 -304 208
WIRE -224 240 -224 208
WIRE 464 288 464 240
FLAG -304 240 0
FLAG -304 96 5V
FLAG 464 288 0
FLAG -224 96 VinPre
FLAG 464 64 5V
FLAG -224 240 0
FLAG 240 176 VinPre
FLAG 704 176 VoutPre
SYMBOL voltage -304 112 R0
WINDOW 3 32 81 Left 2
WINDOW 123 0 0 Left 0
WINDOW 39 0 0 Left 0
SYMATTR Value 5
SYMATTR InstName V1
SYMBOL voltage -224 112 R0
WINDOW 3 11 -55 Left 2
WINDOW 123 24 44 Left 2
WINDOW 39 0 0 Left 0
SYMATTR Value PULSE(0 {Vatt} 0 1n 1n 12.5u 25u)
SYMATTR Value2 AC 1
SYMATTR InstName V2
SYMBOL preamp 464 176 R0
WINDOW 39 0 0 Left 0
SYMATTR InstName X2
SYMATTR SpiceLine R1=Rbase R2=Rbase*gain
TEXT -248 288 Left 2 !.step param gain list 2 20 200 2000
TEXT -248 312 Left 2 !.param Vatt=5/gain
TEXT -184 248 Left 2 !.ac dec 100 10 100Meg
TEXT -248 336 Left 2 !.param Rbase=1k
TEXT -248 368 Left 2 !.meas ac 3db when V(VoutPre)=1/sqrt(2)
