Version 4
SHEET 1 880 680
WIRE -192 -176 -224 -176
WIRE -80 -176 -112 -176
WIRE 16 -176 -16 -176
WIRE 112 -176 96 -176
WIRE -224 -80 -224 -176
WIRE -224 -80 -256 -80
WIRE 32 -80 -224 -80
WIRE 112 -80 112 -176
WIRE 112 -80 96 -80
WIRE 112 16 112 -80
WIRE -352 80 -352 48
WIRE -224 80 -224 48
WIRE 304 80 224 80
WIRE -352 176 -352 160
WIRE -352 176 -432 176
WIRE -224 176 -224 160
WIRE -224 176 -352 176
WIRE -432 240 -432 176
WIRE 112 240 112 144
FLAG -432 240 0
FLAG -352 48 12V
FLAG 112 240 0
FLAG -256 -80 12V
FLAG -224 48 VCOOut
FLAG 304 80 VCOOut
SYMBOL voltage -352 64 R0
SYMATTR InstName V1
SYMATTR Value 12
SYMBOL voltage -224 64 R0
WINDOW 3 -12 213 Left 2
WINDOW 123 -15 235 Left 2
WINDOW 39 0 0 Left 0
SYMATTR Value PULSE(0 5 0 1n 1n 12.5u 25u)
SYMATTR Value2 AC 1 0
SYMATTR InstName V3
SYMBOL TransmissionAmp 48 112 R0
SYMATTR InstName X2
SYMBOL cap 32 -64 R270
WINDOW 0 32 32 VTop 2
WINDOW 3 0 32 VBottom 2
SYMATTR InstName C0
SYMATTR Value 2.288n
SYMBOL res 0 -160 R270
WINDOW 0 32 56 VTop 2
WINDOW 3 0 56 VBottom 2
SYMATTR InstName R1
SYMATTR Value 1358.4
SYMBOL cap -80 -160 R270
WINDOW 0 32 32 VTop 2
WINDOW 3 0 32 VBottom 2
SYMATTR InstName C1
SYMATTR Value 382.69p
SYMBOL ind -208 -160 R270
WINDOW 0 32 56 VTop 2
WINDOW 3 5 56 VBottom 2
SYMATTR InstName L1
SYMATTR Value 66.85m
TEXT -456 320 Left 2 !.tran 0.25m
