Version 4
SHEET 1 880 680
WIRE -352 64 -352 32
WIRE -224 64 -224 32
WIRE 224 96 224 64
WIRE -352 160 -352 144
WIRE -352 160 -416 160
WIRE -224 160 -224 144
WIRE -224 160 -352 160
WIRE 112 160 64 160
WIRE 384 160 336 160
WIRE -352 176 -352 160
WIRE -416 192 -416 160
WIRE 160 272 160 240
WIRE 288 272 288 240
WIRE -352 288 -352 256
FLAG -416 192 0
FLAG -352 32 5V
FLAG -352 288 -5V
FLAG 288 272 0
FLAG 160 272 -5V
FLAG 224 64 5V
FLAG 64 160 Vin
FLAG 384 160 Vout
FLAG -224 32 Vin
SYMBOL Differentiator 224 176 R0
SYMATTR InstName X1
SYMBOL voltage -352 48 R0
SYMATTR InstName V1
SYMATTR Value 5
SYMBOL voltage -352 160 R0
SYMATTR InstName V2
SYMATTR Value 5
SYMBOL voltage -224 48 R0
WINDOW 123 24 124 Left 2
WINDOW 39 0 0 Left 0
SYMATTR InstName V3
SYMATTR Value 5
SYMATTR Value2 AC 1
TEXT -440 376 Left 2 !.ac dec 100 1 100k
