Version 4
SHEET 1 880 680
WIRE -352 48 -352 32
WIRE -112 48 -352 48
WIRE -352 64 -352 48
WIRE -112 80 -112 48
WIRE 224 96 224 64
WIRE -352 160 -352 144
WIRE -352 160 -416 160
WIRE -256 160 -256 144
WIRE -224 160 -256 160
WIRE 112 160 64 160
WIRE 368 160 336 160
WIRE 384 160 368 160
WIRE -352 176 -352 160
WIRE -416 192 -416 160
WIRE 368 192 368 160
WIRE -352 272 -352 256
WIRE -80 272 -80 240
WIRE -80 272 -352 272
WIRE 160 272 160 240
WIRE 288 272 288 240
WIRE -352 288 -352 272
WIRE -144 288 -144 240
WIRE 368 288 368 272
FLAG -416 192 0
FLAG -352 32 5V
FLAG -352 288 -5V
FLAG 288 272 0
FLAG 160 272 -5V
FLAG 224 64 5V
FLAG 64 160 Vin
FLAG 384 160 Vout
FLAG 368 288 0
FLAG -144 288 0
FLAG -256 144 Vin
SYMBOL Differentiator 224 176 R0
SYMATTR InstName X1
SYMBOL voltage -352 48 R0
SYMATTR InstName V1
SYMATTR Value 5
SYMBOL voltage -352 160 R0
SYMATTR InstName V2
SYMATTR Value 5
SYMBOL res 352 176 R0
SYMATTR InstName R1
SYMATTR Value 1Meg
SYMBOL TriangleWaveGenerator -112 176 R0
SYMATTR InstName X2
TEXT -440 376 Left 2 !.tran 0 1.3 0.5
