Version 4
SHEET 1 880 720
WIRE 240 128 240 80
WIRE -240 192 -240 144
WIRE -112 192 -112 144
WIRE 112 192 64 192
WIRE 400 192 336 192
WIRE -240 304 -240 272
WIRE -112 304 -112 272
WIRE 240 304 240 256
FLAG 240 304 0
FLAG -112 304 0
FLAG -240 304 0
FLAG -112 144 5V
FLAG -240 144 VC
FLAG 64 192 Vout
FLAG 240 80 5V
FLAG 400 192 VC
SYMBOL VCO 240 176 R0
SYMATTR InstName X1
SYMBOL voltage -112 176 R0
SYMATTR InstName V1
SYMATTR Value 5
SYMBOL voltage -240 176 R0
WINDOW 3 -13 196 Left 2
WINDOW 123 0 0 Left 0
WINDOW 39 0 0 Left 0
SYMATTR InstName V2
SYMATTR Value PWL(0m 0 4m 0 4.1m 1 4.5m 1 4.6m -1 5m -1 5.1m 0)
TEXT -256 344 Left 2 !.tran 0 5.4m 3.9m
TEXT -248 424 Left 2 !.meas t1centre find time when V(Vout)=2.5 cross=1 td=0.05m
TEXT -248 448 Left 2 !.meas t2centre find time when V(Vout)=2.5 cross=3 td=0.05m
TEXT -248 600 Left 2 !.meas fcentre PARAM 1/(t2centre-t1centre)
TEXT -248 480 Left 2 !.meas t1low find time when V(Vout)=2.5 cross=1 td=0.3m
TEXT -248 504 Left 2 !.meas t2low find time when V(Vout)=2.5 cross=3 td=0.3m
TEXT -248 624 Left 2 !.meas fLow PARAM 1/(t2low-t1low)
TEXT -248 536 Left 2 !.meas t1high find time when V(Vout)=2.5 cross=1 td=0.9m
TEXT -248 560 Left 2 !.meas t2high find time when V(Vout)=2.5 cross=3 td=0.9m
TEXT -248 648 Left 2 !.meas fHigh PARAM 1/(t2high-t1high)
TEXT -248 680 Left 2 !.meas Bandwidth PARAM fHigh-fLow
