Version 4
SHEET 1 2884 904
WIRE 528 32 448 32
WIRE 800 32 752 32
WIRE 336 112 336 48
WIRE 528 112 480 112
WIRE 832 112 752 112
WIRE 960 112 960 48
WIRE 960 112 832 112
WIRE 832 128 832 112
WIRE 480 144 480 112
WIRE 304 192 272 192
WIRE 480 192 384 192
WIRE 528 192 480 192
WIRE 784 192 752 192
WIRE 784 224 784 192
WIRE 832 224 832 208
WIRE 832 224 784 224
WIRE 480 240 480 192
WIRE 832 240 832 224
WIRE 480 336 480 320
WIRE 832 336 832 320
FLAG 480 144 0
FLAG 832 336 0
FLAG 800 32 VOUT
IOPIN 800 32 Out
FLAG 480 336 0
FLAG 960 48 5V
IOPIN 960 48 In
FLAG 448 32 5V
IOPIN 448 32 In
FLAG 272 192 VC
IOPIN 272 192 In
FLAG 336 112 0
FLAG 336 48 GND
IOPIN 336 48 In
SYMBOL res 464 224 R0
SYMATTR InstName RSET
SYMATTR Value 348k
SYMBOL res 816 112 R0
SYMATTR InstName R1
SYMATTR Value 976k
SYMBOL res 816 224 R0
SYMATTR InstName R2
SYMATTR Value 182k
SYMBOL SpecialFunctions\\LTC6990 640 112 R0
SYMATTR InstName U1
SYMBOL res 400 176 R90
WINDOW 0 0 56 VBottom 2
WINDOW 3 32 56 VTop 2
SYMATTR InstName RVCO
SYMATTR Value 3.16Meg
LINE Normal 448 112 448 112 2
LINE Normal 464 240 464 240 2
