Version 4
SHEET 1 880 680
WIRE -224 64 -224 48
WIRE -192 64 -192 48
WIRE -192 64 -224 64
WIRE -352 80 -352 48
WIRE -224 80 -224 64
WIRE 208 96 208 64
WIRE 48 144 -16 144
WIRE 432 144 432 128
WIRE 432 144 384 144
WIRE -352 176 -352 160
WIRE -352 176 -432 176
WIRE -224 176 -224 160
WIRE -224 176 -352 176
WIRE 48 176 -16 176
WIRE 464 176 464 128
WIRE 464 176 384 176
WIRE -352 192 -352 176
WIRE -432 240 -432 176
WIRE 128 288 128 256
WIRE 288 288 288 256
WIRE -352 304 -352 272
FLAG -432 240 0
FLAG 208 64 5V
FLAG -352 48 5V
FLAG -352 304 -5V
FLAG 128 288 -5V
FLAG 288 288 0
FLAG 432 128 VoutPre
FLAG 464 128 VoutTrans
FLAG -16 144 VinPre
FLAG -16 176 VinTrans
FLAG -224 48 VinPre
FLAG -192 48 VinTrans
SYMBOL TransmissionPreAmp 144 160 R0
SYMATTR InstName X1
SYMBOL voltage -352 64 R0
SYMATTR InstName V1
SYMATTR Value 5
SYMBOL voltage -352 176 R0
SYMATTR InstName V2
SYMATTR Value 5
SYMBOL voltage -224 64 R0
WINDOW 3 -12 213 Left 2
WINDOW 123 -15 235 Left 2
WINDOW 39 0 0 Left 0
SYMATTR InstName V3
SYMATTR Value PULSE(0 1 0 1n 1n 12.5u 25u)
SYMATTR Value2 AC 1 0
TEXT -232 344 Left 2 !.ac oct 10 10 2000k
