Version 4
SHEET 1 880 680
WIRE -112 48 -112 16
WIRE 0 48 0 16
WIRE 160 80 128 80
WIRE 224 80 224 64
WIRE -112 144 -112 128
WIRE -112 144 -176 144
WIRE 0 144 0 128
WIRE 0 144 -112 144
WIRE -112 160 -112 144
WIRE 0 160 0 144
WIRE 368 160 304 160
WIRE -176 192 -176 144
WIRE 160 240 128 240
WIRE 224 256 224 240
WIRE -112 272 -112 240
WIRE 0 272 0 240
FLAG -176 192 0
FLAG -112 16 5V
FLAG -112 272 -5V
FLAG 0 16 +
FLAG 0 272 -
FLAG 128 80 +
FLAG 128 240 -
FLAG 224 64 5V
FLAG 224 256 -5V
FLAG 368 160 Vout
SYMBOL DifferentialAmp 224 192 R0
SYMATTR InstName X1
SYMBOL voltage -112 32 R0
SYMATTR InstName V1
SYMATTR Value 5
SYMBOL voltage -112 144 R0
SYMATTR InstName V2
SYMATTR Value 5
SYMBOL voltage 0 32 R0
WINDOW 3 12 -27 Left 2
WINDOW 123 0 0 Left 0
WINDOW 39 0 0 Left 0
SYMATTR InstName V3
SYMATTR Value PULSE(0 -1 0 43m 43m 0 86m)
SYMBOL voltage 0 144 R0
WINDOW 3 36 164 Left 2
WINDOW 123 0 0 Left 0
WINDOW 39 0 0 Left 0
SYMATTR InstName V4
SYMATTR Value PULSE(0 -1 {delay} 43m 43m 0 86m)
TEXT -196 360 Left 2 !.tran 1
TEXT -192 400 Left 2 !.step param delay list 0 1m 5m 10m 14.5m
